24
Lattice="2.548106356 0.0 0.0 0.0 4.775899536 7.420825939 0.0 -4.775899536 7.42082594" Properties=species:S:1:pos:R:3 pbc="T T T"
H        0.63702659       5.03162607       8.79965957
H        0.63702659       3.85180564       7.50370851
C        0.63702659       4.93170554       7.70652592
H        0.63702659       7.84661899       5.08925851
H        1.91107977       7.41957585       2.33157830
H        1.91107977       5.45866920       6.04197936
H        0.63702659       9.02643968       3.79330772
H        1.91107977       6.23975543       3.62752937
H        1.91107977       6.63848989       7.33793015
C        0.63702659       7.94653974       3.99612486
C        1.91107977       7.31965533       3.42471196
C        1.91107977       5.55858995       7.13511302
H        0.63702659       7.84661899      12.51008445
H        1.91107977       7.41957585       9.75240425
H        0.63702659       9.02643968      11.21413366
H        1.91107977       6.23975543      11.04835531
C        0.63702659       7.94653974      11.41695079
C        1.91107977       7.31965533      10.84553790
H        0.63702659       9.80752560       8.79965957
H        0.63702659       8.62770518       7.50370851
C        0.63702659       9.70760508       7.70652591
H        1.91107977      10.23456874       6.04197936
H        1.91107977      11.41438943       7.33793015
C        1.91107977      10.33448949       7.13511302
